Version 4
SHEET 1 1236 680
WIRE 848 -128 736 -128
WIRE 1024 -128 848 -128
WIRE 736 -112 736 -128
WIRE 1024 -48 1024 -128
WIRE 560 0 496 0
WIRE 736 0 736 -32
WIRE 736 0 624 0
WIRE 960 0 736 0
WIRE 736 64 736 0
WIRE 496 128 496 0
WIRE 592 128 496 128
WIRE 496 176 496 128
WIRE 1024 176 1024 48
WIRE 1056 176 1024 176
WIRE 1184 176 1120 176
WIRE 736 224 736 128
WIRE 1184 224 1184 176
WIRE 1024 272 1024 176
WIRE 592 320 592 128
WIRE 608 320 592 320
WIRE 736 320 736 288
WIRE 736 320 672 320
WIRE 960 320 736 320
WIRE 736 368 736 320
WIRE 736 464 736 448
WIRE 896 464 736 464
WIRE 1024 464 1024 368
WIRE 1024 464 896 464
FLAG 1184 304 0
FLAG 1184 176 Vo
FLAG 416 480 0
FLAG 304 480 0
FLAG 304 400 VCC
IOPIN 304 400 In
FLAG 416 400 -VEE
IOPIN 416 400 In
FLAG 848 -128 VCC
IOPIN 848 -128 In
FLAG 896 464 -VEE
IOPIN 896 464 In
FLAG 496 256 0
SYMBOL diode 720 64 R0
SYMATTR InstName D1
SYMATTR Value 1N4148
SYMBOL diode 720 224 R0
SYMATTR InstName D2
SYMATTR Value 1N4148
SYMBOL npn 960 -48 R0
SYMATTR InstName Q1
SYMATTR Value TIP31C
SYMBOL pnp 960 368 M180
SYMATTR InstName Q2
SYMATTR Value TIP32C
SYMBOL res 1168 208 R0
SYMATTR InstName R1
SYMATTR Value 10
SYMBOL voltage 304 384 R0
SYMATTR InstName V1
SYMATTR Value 5
SYMBOL voltage 416 496 R180
WINDOW 0 24 96 Left 2
WINDOW 3 24 16 Left 2
SYMATTR InstName V2
SYMATTR Value 5
SYMBOL cap 1120 160 R90
WINDOW 0 0 32 VBottom 2
WINDOW 3 32 32 VTop 2
SYMATTR InstName C1
SYMATTR Value 940µ
SYMBOL voltage 496 160 R0
WINDOW 123 24 120 Left 2
WINDOW 39 0 0 Left 0
SYMATTR InstName V3
SYMATTR Value SINE(0 4.1 1k)
SYMBOL res 720 352 R0
SYMATTR InstName R2
SYMATTR Value 500
SYMBOL res 720 -128 R0
SYMATTR InstName R3
SYMATTR Value 500
SYMBOL cap 624 -16 R90
WINDOW 0 0 32 VBottom 2
WINDOW 3 32 32 VTop 2
SYMATTR InstName C2
SYMATTR Value 100µ
SYMBOL cap 672 304 R90
WINDOW 0 0 32 VBottom 2
WINDOW 3 32 32 VTop 2
SYMATTR InstName C3
SYMATTR Value 100µ
TEXT 176 168 Left 2 !.tran 10m
TEXT 176 104 Left 2 ;.ac dec 1000 1m 1G
TEXT 176 136 Left 2 !.four 1000 4 -1 V(Vo)
TEXT 176 72 Left 2 ;.op
TEXT -640 -40 Left 2 !,inc "C:\\Users\\varun\\Documents\\IIITH\\Sem4\\EW2\\Project1\\Libraries\\tip32c.lib"
TEXT -640 -64 Left 2 !,inc "C:\\Users\\varun\\Documents\\IIITH\\Sem4\\EW2\\Project1\\Libraries\\tip31c.lib"
